<?xml version="1.0" encoding="UTF-8"?>

<!-- generated on 2025-05-17 14:29:26 by Eclipse SUMO netedit Version 1.22.0
<neteditConfiguration xmlns:xsi="http://www.w3.org/2001/XMLSchema-instance" xsi:noNamespaceSchemaLocation="http://sumo.dlr.de/xsd/neteditConfiguration.xsd">

    <input>
        <sumocfg-file value="D:\UIT\Subjects\AI\DOAN\SUMO-test\test.sumocfg"/>
        <additional-files value=""/>
        <route-files value="D:\UIT\Subjects\AI\DOAN\SUMO-test\test.rou.xml"/>
        <sumo-net-file value="D:\UIT\Subjects\AI\DOAN\SUMO-test\OfficialMap.net.xml"/>
    </input>

    <output>
        <output-file value="D:\UIT\Subjects\AI\DOAN\SUMO-test\OfficialMap.net.xml"/>
    </output>

    <processing>
        <geometry.min-radius.fix.railways value="false"/>
        <geometry.max-grade.fix value="false"/>
        <offset.disable-normalization value="true"/>
        <lefthand value="0"/>
    </processing>

    <junctions>
        <no-internal-links value="false"/>
        <no-turnarounds value="true"/>
        <junctions.corner-detail value="5"/>
        <junctions.limit-turn-speed value="5.50"/>
        <rectangular-lane-cut value="0"/>
    </junctions>

    <pedestrian>
        <walkingareas value="1"/>
    </pedestrian>

</neteditConfiguration>
-->

<net version="1.20" junctionCornerDetail="5" walkingareas="true" limitTurnSpeed="5.50" xmlns:xsi="http://www.w3.org/2001/XMLSchema-instance" xsi:noNamespaceSchemaLocation="http://sumo.dlr.de/xsd/net_file.xsd">

    <location netOffset="0.00,0.00" convBoundary="-64.77,-27.61,27.95,42.39" origBoundary="-10000000000.00,-10000000000.00,10000000000.00,10000000000.00" projParameter="!"/>

    <edge id=":J0_w0" function="walkingarea">
        <lane id=":J0_w0_0" index="0" allow="pedestrian" speed="2.78" length="8.40" width="2.00" shape="-64.77,9.75 -64.77,7.75 -64.77,18.15 -64.77,16.15"/>
    </edge>
    <edge id=":J1_w0" function="walkingarea">
        <lane id=":J1_w0_0" index="0" allow="pedestrian" speed="2.78" length="8.40" width="2.00" shape="27.99,16.15 28.01,18.15 27.89,7.75 27.91,9.75"/>
    </edge>
    <edge id=":J2_w0" function="walkingarea">
        <lane id=":J2_w0_0" index="0" allow="pedestrian" speed="2.78" length="8.40" width="2.00" shape="-26.15,42.38 -28.15,42.37 -17.75,42.40 -19.75,42.40"/>
    </edge>
    <edge id=":J3_w0" function="walkingarea">
        <lane id=":J3_w0_0" index="0" allow="pedestrian" speed="2.78" length="8.40" width="2.00" shape="-19.53,-27.60 -17.53,-27.59 -27.93,-27.63 -25.93,-27.62"/>
    </edge>
    <edge id=":clusterJ4_J5_J6_0" function="internal">
        <lane id=":clusterJ4_J5_J6_0_0" index="0" disallow="pedestrian" speed="6.77" length="9.74" shape="-15.12,15.08 -17.81,15.48 -19.74,16.60 -20.90,18.45 -21.29,21.03"/>
    </edge>
    <edge id=":clusterJ4_J5_J6_1" function="internal">
        <lane id=":clusterJ4_J5_J6_1_0" index="0" disallow="pedestrian" speed="13.89" length="15.01" shape="-15.12,15.08 -30.14,15.11"/>
    </edge>
    <edge id=":clusterJ4_J5_J6_2" function="internal">
        <lane id=":clusterJ4_J5_J6_2_0" index="0" disallow="pedestrian" speed="8.19" length="4.08" shape="-15.12,15.08 -18.94,14.56 -19.14,14.45"/>
    </edge>
    <edge id=":clusterJ4_J5_J6_12" function="internal">
        <lane id=":clusterJ4_J5_J6_12_0" index="0" disallow="pedestrian" speed="8.19" length="10.32" shape="-19.14,14.45 -21.74,12.91 -23.53,10.13 -24.30,6.22"/>
    </edge>
    <edge id=":clusterJ4_J5_J6_3" function="internal">
        <lane id=":clusterJ4_J5_J6_3_0" index="0" disallow="pedestrian" speed="6.64" length="4.97" shape="-20.89,6.02 -20.45,8.61 -19.35,10.44 -19.18,10.55"/>
    </edge>
    <edge id=":clusterJ4_J5_J6_4" function="internal">
        <lane id=":clusterJ4_J5_J6_4_0" index="0" disallow="pedestrian" speed="13.89" length="15.02" shape="-20.89,6.02 -21.29,21.03"/>
    </edge>
    <edge id=":clusterJ4_J5_J6_5" function="internal">
        <lane id=":clusterJ4_J5_J6_5_0" index="0" disallow="pedestrian" speed="7.74" length="5.08" shape="-20.89,6.02 -21.66,9.29 -22.67,10.68"/>
    </edge>
    <edge id=":clusterJ4_J5_J6_13" function="internal">
        <lane id=":clusterJ4_J5_J6_13_0" index="0" disallow="pedestrian" speed="6.64" length="4.32" shape="-19.18,10.55 -17.59,11.53 -15.16,11.88"/>
    </edge>
    <edge id=":clusterJ4_J5_J6_14" function="internal">
        <lane id=":clusterJ4_J5_J6_14_0" index="0" disallow="pedestrian" speed="7.74" length="9.02" shape="-22.67,10.68 -23.84,12.27 -26.85,14.39 -30.14,15.11"/>
    </edge>
    <edge id=":clusterJ4_J5_J6_6" function="internal">
        <lane id=":clusterJ4_J5_J6_6_0" index="0" disallow="pedestrian" speed="6.39" length="9.41" shape="-29.97,11.91 -27.36,11.68 -25.54,10.65 -24.52,8.83 -24.30,6.22"/>
    </edge>
    <edge id=":clusterJ4_J5_J6_7" function="internal">
        <lane id=":clusterJ4_J5_J6_7_0" index="0" disallow="pedestrian" speed="13.89" length="14.81" shape="-29.97,11.91 -15.16,11.88"/>
    </edge>
    <edge id=":clusterJ4_J5_J6_8" function="internal">
        <lane id=":clusterJ4_J5_J6_8_0" index="0" disallow="pedestrian" speed="8.15" length="3.67" shape="-29.97,11.91 -26.37,12.62"/>
    </edge>
    <edge id=":clusterJ4_J5_J6_15" function="internal">
        <lane id=":clusterJ4_J5_J6_15_0" index="0" disallow="pedestrian" speed="8.15" length="10.53" shape="-26.37,12.62 -26.16,12.66 -23.45,14.43 -21.82,17.22 -21.29,21.03"/>
    </edge>
    <edge id=":clusterJ4_J5_J6_9" function="internal">
        <lane id=":clusterJ4_J5_J6_9_0" index="0" disallow="pedestrian" speed="6.66" length="4.91" shape="-24.48,20.94 -24.83,18.50 -25.89,16.72 -26.21,16.51"/>
    </edge>
    <edge id=":clusterJ4_J5_J6_10" function="internal">
        <lane id=":clusterJ4_J5_J6_10_0" index="0" disallow="pedestrian" speed="13.89" length="14.72" shape="-24.48,20.94 -24.30,6.22"/>
    </edge>
    <edge id=":clusterJ4_J5_J6_11" function="internal">
        <lane id=":clusterJ4_J5_J6_11_0" index="0" disallow="pedestrian" speed="8.00" length="4.25" shape="-24.48,20.94 -23.63,17.70 -23.09,16.98"/>
    </edge>
    <edge id=":clusterJ4_J5_J6_16" function="internal">
        <lane id=":clusterJ4_J5_J6_16_0" index="0" disallow="pedestrian" speed="6.66" length="4.25" shape="-26.21,16.51 -27.66,15.59 -30.14,15.11"/>
    </edge>
    <edge id=":clusterJ4_J5_J6_17" function="internal">
        <lane id=":clusterJ4_J5_J6_17_0" index="0" disallow="pedestrian" speed="8.00" length="9.77" shape="-23.09,16.98 -21.44,14.80 -18.44,12.70 -15.16,11.88"/>
    </edge>
    <edge id=":clusterJ4_J5_J6_c0" function="crossing" crossingEdges="E00 -E0">
        <lane id=":clusterJ4_J5_J6_c0_0" index="0" allow="pedestrian" speed="2.78" length="6.40" width="4.00" shape="-17.18,10.30 -17.10,16.70" outlineShape="-15.18,10.28 -15.10,16.67 -16.50,16.81 -17.65,17.18 -18.54,17.79 -19.08,18.52 -19.23,6.44 -19.13,7.29 -18.76,8.38 -18.19,9.22 -17.40,9.82 -16.39,10.17"/>
    </edge>
    <edge id=":clusterJ4_J5_J6_c1" function="crossing" crossingEdges="-E0.56 E0">
        <lane id=":clusterJ4_J5_J6_c1_0" index="0" allow="pedestrian" speed="2.78" length="6.40" width="4.00" shape="-28.23,16.81 -27.88,10.42" outlineShape="-30.22,16.71 -29.88,10.32 -29.88,10.22 -29.88,10.32 -28.60,10.27 -27.56,9.97 -26.77,9.43 -26.23,8.64 -26.17,8.42 -25.89,10.53 -26.23,16.92 -26.44,18.95 -26.54,18.68 -27.11,17.87 -27.92,17.28 -28.95,16.89"/>
    </edge>
    <edge id=":clusterJ4_J5_J6_w0" function="walkingarea">
        <lane id=":clusterJ4_J5_J6_w0_0" index="0" allow="pedestrian" speed="2.78" length="3.97" width="4.00" shape="-19.69,21.11 -17.69,21.12 -15.08,18.67 -15.10,16.67 -16.50,16.81 -17.65,17.18 -18.54,17.79 -19.17,18.64 -19.56,19.72"/>
    </edge>
    <edge id=":clusterJ4_J5_J6_w1" function="walkingarea">
        <lane id=":clusterJ4_J5_J6_w1_0" index="0" allow="pedestrian" speed="2.78" length="3.80" width="4.00" shape="-15.18,10.28 -15.21,8.28 -17.29,5.83 -19.29,5.90 -19.13,7.29 -18.76,8.38 -18.19,9.22 -17.40,9.82 -16.39,10.17"/>
    </edge>
    <edge id=":clusterJ4_J5_J6_w2" function="walkingarea">
        <lane id=":clusterJ4_J5_J6_w2_0" index="0" allow="pedestrian" speed="2.78" length="3.52" width="4.00" shape="-25.90,6.31 -27.90,6.43 -29.78,8.32 -29.88,10.32 -28.60,10.27 -27.56,9.97 -26.77,9.43 -26.23,8.64 -25.94,7.60"/>
    </edge>
    <edge id=":clusterJ4_J5_J6_w3" function="walkingarea">
        <lane id=":clusterJ4_J5_J6_w3_0" index="0" allow="pedestrian" speed="2.78" length="3.64" width="4.00" shape="-30.22,16.71 -30.33,18.70 -28.08,20.85 -26.08,20.86 -26.19,19.70 -26.54,18.68 -27.11,17.87 -27.92,17.28 -28.95,16.89"/>
    </edge>

    <edge id="-E0" from="J1" to="clusterJ4_J5_J6" priority="-1" shape="27.95,12.95 -27.84,13.63">
        <lane id="-E0_0" index="0" allow="pedestrian" speed="13.89" length="43.10" width="2.00" shape="28.00,17.15 -15.09,17.67"/>
        <lane id="-E0_1" index="1" disallow="pedestrian" speed="13.89" length="43.10" shape="27.97,14.55 -15.12,15.08"/>
    </edge>
    <edge id="-E0.56" from="clusterJ4_J5_J6" to="J0" priority="-1" shape="-27.84,13.63 -40.57,12.95 -64.77,12.95">
        <lane id="-E0.56_0" index="0" allow="pedestrian" speed="13.89" length="34.58" width="2.00" shape="-30.28,17.71 -40.68,17.15 -64.77,17.15"/>
        <lane id="-E0.56_1" index="1" disallow="pedestrian" speed="13.89" length="34.58" shape="-30.14,15.11 -40.61,14.55 -64.77,14.55"/>
    </edge>
    <edge id="-E1" from="J3" to="clusterJ4_J5_J6" priority="-1" shape="-22.73,-27.61 -22.81,-3.41 -22.60,2.72">
        <lane id="-E1_0" index="0" allow="pedestrian" speed="13.89" length="33.55" width="2.00" shape="-18.53,-27.60 -18.61,-3.47 -18.29,5.87"/>
        <lane id="-E1_1" index="1" disallow="pedestrian" speed="13.89" length="33.55" shape="-21.13,-27.60 -21.21,-3.43 -20.89,6.02"/>
    </edge>
    <edge id="-E1.29" from="clusterJ4_J5_J6" to="J2" priority="-1" shape="-22.60,2.72 -22.86,11.36 -22.87,14.43 -22.95,42.39">
        <lane id="-E1.29_0" index="0" allow="pedestrian" speed="13.89" length="21.33" width="2.00" shape="-18.69,21.11 -18.75,42.40"/>
        <lane id="-E1.29_1" index="1" disallow="pedestrian" speed="13.89" length="21.33" shape="-21.29,21.03 -21.35,42.39"/>
    </edge>
    <edge id="E0" from="J0" to="clusterJ4_J5_J6" priority="-1" shape="-64.77,12.95 -40.57,12.95 -27.84,13.63">
        <lane id="E0_0" index="0" allow="pedestrian" speed="13.89" length="34.89" width="2.00" shape="-64.77,8.75 -40.46,8.75 -29.83,9.32"/>
        <lane id="E0_1" index="1" disallow="pedestrian" speed="13.89" length="34.89" shape="-64.77,11.35 -40.53,11.35 -29.97,11.91"/>
    </edge>
    <edge id="E00" from="clusterJ4_J5_J6" to="J1" priority="-1" shape="-27.84,13.63 27.95,12.95">
        <lane id="E00_0" index="0" allow="pedestrian" speed="13.89" length="43.10" width="2.00" shape="-15.19,9.28 27.90,8.75"/>
        <lane id="E00_1" index="1" disallow="pedestrian" speed="13.89" length="43.10" shape="-15.16,11.88 27.93,11.35"/>
    </edge>
    <edge id="E1" from="J2" to="clusterJ4_J5_J6" priority="-1" shape="-22.95,42.39 -22.86,14.43 -22.85,11.36 -22.61,7.73">
        <lane id="E1_0" index="0" allow="pedestrian" speed="13.89" length="21.49" width="2.00" shape="-27.15,42.38 -27.08,20.86"/>
        <lane id="E1_1" index="1" disallow="pedestrian" speed="13.89" length="21.49" shape="-24.55,42.38 -24.48,20.94"/>
    </edge>
    <edge id="E1.35" from="clusterJ4_J5_J6" to="J3" priority="-1" shape="-22.61,7.73 -22.83,3.98 -22.81,-3.41 -22.73,-27.61">
        <lane id="E1.35_0" index="0" allow="pedestrian" speed="13.89" length="33.92" width="2.00" shape="-26.90,6.37 -27.03,4.10 -27.01,-3.42 -26.93,-27.62"/>
        <lane id="E1.35_1" index="1" disallow="pedestrian" speed="13.89" length="33.92" shape="-24.30,6.22 -24.43,4.02 -24.41,-3.42 -24.33,-27.62"/>
    </edge>

    <tlLogic id="clusterJ4_J5_J6" type="static" programID="0" offset="0">
        <phase duration="42" state="GGgrrrGGgrrrrr"/>
        <phase duration="3"  state="yyyrrryyyrrrrr"/>
        <phase duration="37" state="rrrgGgrrrgGgGG"/>
        <phase duration="5"  state="rrrgGgrrrgGgrr"/>
        <phase duration="3"  state="rrryyyrrryyyrr"/>
    </tlLogic>

    <junction id="J0" type="dead_end" x="-64.77" y="12.95" incLanes="-E0.56_0 -E0.56_1" intLanes="" shape="-64.77,12.95 -64.77,18.15 -64.77,12.95"/>
    <junction id="J1" type="dead_end" x="27.95" y="12.95" incLanes="E00_0 E00_1" intLanes="" shape="27.95,12.95 27.89,7.75 27.95,12.95"/>
    <junction id="J2" type="dead_end" x="-22.95" y="42.39" incLanes="-E1.29_0 -E1.29_1" intLanes="" shape="-22.95,42.39 -28.15,42.37 -17.75,42.40"/>
    <junction id="J3" type="dead_end" x="-22.73" y="-27.61" incLanes="E1.35_0 E1.35_1" intLanes="" shape="-22.73,-27.61 -27.93,-27.63 -22.73,-27.61"/>
    <junction id="clusterJ4_J5_J6" type="traffic_light" x="-24.35" y="8.03" incLanes="-E0_0 -E0_1 -E1_0 -E1_1 E0_0 E0_1 E1_0 E1_1 :clusterJ4_J5_J6_w1_0 :clusterJ4_J5_J6_w3_0" intLanes=":clusterJ4_J5_J6_0_0 :clusterJ4_J5_J6_1_0 :clusterJ4_J5_J6_12_0 :clusterJ4_J5_J6_13_0 :clusterJ4_J5_J6_4_0 :clusterJ4_J5_J6_14_0 :clusterJ4_J5_J6_6_0 :clusterJ4_J5_J6_7_0 :clusterJ4_J5_J6_15_0 :clusterJ4_J5_J6_16_0 :clusterJ4_J5_J6_10_0 :clusterJ4_J5_J6_17_0 :clusterJ4_J5_J6_c0_0 :clusterJ4_J5_J6_c1_0" shape="-15.08,18.67 -15.21,8.28 -16.33,8.01 -16.73,7.67 -17.02,7.19 -17.21,6.57 -17.29,5.81 -27.90,6.43 -28.05,7.53 -28.31,7.90 -28.68,8.16 -29.17,8.30 -29.78,8.32 -30.33,18.70 -29.08,18.99 -28.64,19.29 -28.33,19.70 -28.14,20.21 -28.08,20.82 -17.69,21.14 -17.40,19.79 -17.03,19.31 -16.53,18.96 -15.87,18.75">
        <request index="0"  response="01000000000000" foes="01000100010000" cont="0"/>
        <request index="1"  response="11101000100000" foes="11111100110000" cont="0"/>
        <request index="2"  response="01100111100000" foes="01110111110000" cont="1"/>
        <request index="3"  response="01000010000000" foes="01100010000000" cont="1"/>
        <request index="4"  response="00000110000111" foes="00100110000111" cont="0"/>
        <request index="5"  response="10011110000110" foes="10011110000110" cont="1"/>
        <request index="6"  response="10000000000000" foes="10010000000100" cont="0"/>
        <request index="7"  response="11100000101000" foes="11110000111100" cont="0"/>
        <request index="8"  response="10100000100011" foes="10110000110111" cont="1"/>
        <request index="9"  response="10000000000010" foes="10000000100010" cont="1"/>
        <request index="10" response="00000111000110" foes="00000111100110" cont="0"/>
        <request index="11" response="01000110011110" foes="01000110011110" cont="1"/>
        <request index="12" response="00000000000000" foes="00100010001111" cont="0"/>
        <request index="13" response="00000000000000" foes="00001111100010" cont="0"/>
    </junction>

    <junction id=":clusterJ4_J5_J6_12_0" type="internal" x="-19.14" y="14.45" incLanes=":clusterJ4_J5_J6_2_0 E0_1" intLanes=":clusterJ4_J5_J6_4_0 :clusterJ4_J5_J6_5_0 :clusterJ4_J5_J6_6_0 :clusterJ4_J5_J6_7_0 :clusterJ4_J5_J6_10_0 :clusterJ4_J5_J6_11_0 :clusterJ4_J5_J6_c0_0"/>
    <junction id=":clusterJ4_J5_J6_13_0" type="internal" x="-19.18" y="10.55" incLanes=":clusterJ4_J5_J6_3_0" intLanes=":clusterJ4_J5_J6_7_0 :clusterJ4_J5_J6_11_0 :clusterJ4_J5_J6_c0_0"/>
    <junction id=":clusterJ4_J5_J6_14_0" type="internal" x="-22.67" y="10.68" incLanes=":clusterJ4_J5_J6_5_0 E1_1" intLanes=":clusterJ4_J5_J6_1_0 :clusterJ4_J5_J6_2_0 :clusterJ4_J5_J6_7_0 :clusterJ4_J5_J6_8_0 :clusterJ4_J5_J6_9_0 :clusterJ4_J5_J6_10_0 :clusterJ4_J5_J6_c1_0"/>
    <junction id=":clusterJ4_J5_J6_15_0" type="internal" x="-26.37" y="12.62" incLanes=":clusterJ4_J5_J6_8_0 -E0_1" intLanes=":clusterJ4_J5_J6_0_0 :clusterJ4_J5_J6_1_0 :clusterJ4_J5_J6_4_0 :clusterJ4_J5_J6_5_0 :clusterJ4_J5_J6_10_0 :clusterJ4_J5_J6_11_0 :clusterJ4_J5_J6_c1_0"/>
    <junction id=":clusterJ4_J5_J6_16_0" type="internal" x="-26.21" y="16.51" incLanes=":clusterJ4_J5_J6_9_0" intLanes=":clusterJ4_J5_J6_1_0 :clusterJ4_J5_J6_5_0 :clusterJ4_J5_J6_c1_0"/>
    <junction id=":clusterJ4_J5_J6_17_0" type="internal" x="-23.09" y="16.98" incLanes=":clusterJ4_J5_J6_11_0 -E1_1" intLanes=":clusterJ4_J5_J6_1_0 :clusterJ4_J5_J6_2_0 :clusterJ4_J5_J6_3_0 :clusterJ4_J5_J6_4_0 :clusterJ4_J5_J6_7_0 :clusterJ4_J5_J6_8_0 :clusterJ4_J5_J6_c0_0"/>

    <connection from="-E0" to="-E1.29" fromLane="1" toLane="1" via=":clusterJ4_J5_J6_0_0" tl="clusterJ4_J5_J6" linkIndex="0" dir="r" state="o"/>
    <connection from="-E0" to="-E0.56" fromLane="1" toLane="1" via=":clusterJ4_J5_J6_1_0" tl="clusterJ4_J5_J6" linkIndex="1" dir="s" state="o"/>
    <connection from="-E0" to="E1.35" fromLane="1" toLane="1" via=":clusterJ4_J5_J6_2_0" tl="clusterJ4_J5_J6" linkIndex="2" dir="l" state="o"/>
    <connection from="-E1" to="E00" fromLane="1" toLane="1" via=":clusterJ4_J5_J6_3_0" tl="clusterJ4_J5_J6" linkIndex="3" dir="r" state="o"/>
    <connection from="-E1" to="-E1.29" fromLane="1" toLane="1" via=":clusterJ4_J5_J6_4_0" tl="clusterJ4_J5_J6" linkIndex="4" dir="s" state="o"/>
    <connection from="-E1" to="-E0.56" fromLane="1" toLane="1" via=":clusterJ4_J5_J6_5_0" tl="clusterJ4_J5_J6" linkIndex="5" dir="l" state="o"/>
    <connection from="E0" to="E1.35" fromLane="1" toLane="1" via=":clusterJ4_J5_J6_6_0" tl="clusterJ4_J5_J6" linkIndex="6" dir="r" state="o"/>
    <connection from="E0" to="E00" fromLane="1" toLane="1" via=":clusterJ4_J5_J6_7_0" tl="clusterJ4_J5_J6" linkIndex="7" dir="s" state="o"/>
    <connection from="E0" to="-E1.29" fromLane="1" toLane="1" via=":clusterJ4_J5_J6_8_0" tl="clusterJ4_J5_J6" linkIndex="8" dir="l" state="o"/>
    <connection from="E1" to="-E0.56" fromLane="1" toLane="1" via=":clusterJ4_J5_J6_9_0" tl="clusterJ4_J5_J6" linkIndex="9" dir="r" state="o"/>
    <connection from="E1" to="E1.35" fromLane="1" toLane="1" via=":clusterJ4_J5_J6_10_0" tl="clusterJ4_J5_J6" linkIndex="10" dir="s" state="o"/>
    <connection from="E1" to="E00" fromLane="1" toLane="1" via=":clusterJ4_J5_J6_11_0" tl="clusterJ4_J5_J6" linkIndex="11" dir="l" state="o"/>

    <connection from=":clusterJ4_J5_J6_0" to="-E1.29" fromLane="0" toLane="1" dir="r" state="M"/>
    <connection from=":clusterJ4_J5_J6_1" to="-E0.56" fromLane="0" toLane="1" dir="s" state="M"/>
    <connection from=":clusterJ4_J5_J6_2" to="E1.35" fromLane="0" toLane="1" via=":clusterJ4_J5_J6_12_0" dir="l" state="m"/>
    <connection from=":clusterJ4_J5_J6_12" to="E1.35" fromLane="0" toLane="1" dir="l" state="M"/>
    <connection from=":clusterJ4_J5_J6_3" to="E00" fromLane="0" toLane="1" via=":clusterJ4_J5_J6_13_0" dir="r" state="m"/>
    <connection from=":clusterJ4_J5_J6_13" to="E00" fromLane="0" toLane="1" dir="r" state="m"/>
    <connection from=":clusterJ4_J5_J6_4" to="-E1.29" fromLane="0" toLane="1" dir="s" state="M"/>
    <connection from=":clusterJ4_J5_J6_5" to="-E0.56" fromLane="0" toLane="1" via=":clusterJ4_J5_J6_14_0" dir="l" state="m"/>
    <connection from=":clusterJ4_J5_J6_14" to="-E0.56" fromLane="0" toLane="1" dir="l" state="m"/>
    <connection from=":clusterJ4_J5_J6_6" to="E1.35" fromLane="0" toLane="1" dir="r" state="M"/>
    <connection from=":clusterJ4_J5_J6_7" to="E00" fromLane="0" toLane="1" dir="s" state="M"/>
    <connection from=":clusterJ4_J5_J6_8" to="-E1.29" fromLane="0" toLane="1" via=":clusterJ4_J5_J6_15_0" dir="l" state="m"/>
    <connection from=":clusterJ4_J5_J6_15" to="-E1.29" fromLane="0" toLane="1" dir="l" state="M"/>
    <connection from=":clusterJ4_J5_J6_9" to="-E0.56" fromLane="0" toLane="1" via=":clusterJ4_J5_J6_16_0" dir="r" state="m"/>
    <connection from=":clusterJ4_J5_J6_16" to="-E0.56" fromLane="0" toLane="1" dir="r" state="m"/>
    <connection from=":clusterJ4_J5_J6_10" to="E1.35" fromLane="0" toLane="1" dir="s" state="M"/>
    <connection from=":clusterJ4_J5_J6_11" to="E00" fromLane="0" toLane="1" via=":clusterJ4_J5_J6_17_0" dir="l" state="m"/>
    <connection from=":clusterJ4_J5_J6_17" to="E00" fromLane="0" toLane="1" dir="l" state="m"/>

    <connection from=":J0_w0" to="E0" fromLane="0" toLane="0" dir="s" state="M"/>
    <connection from="-E0.56" to=":J0_w0" fromLane="0" toLane="0" dir="s" state="M"/>
    <connection from=":J1_w0" to="-E0" fromLane="0" toLane="0" dir="s" state="M"/>
    <connection from="E00" to=":J1_w0" fromLane="0" toLane="0" dir="s" state="M"/>
    <connection from=":J2_w0" to="E1" fromLane="0" toLane="0" dir="s" state="M"/>
    <connection from="-E1.29" to=":J2_w0" fromLane="0" toLane="0" dir="s" state="M"/>
    <connection from=":J3_w0" to="-E1" fromLane="0" toLane="0" dir="s" state="M"/>
    <connection from="E1.35" to=":J3_w0" fromLane="0" toLane="0" dir="s" state="M"/>
    <connection from=":clusterJ4_J5_J6_c0" to=":clusterJ4_J5_J6_w0" fromLane="0" toLane="0" dir="s" state="M"/>
    <connection from=":clusterJ4_J5_J6_c1" to=":clusterJ4_J5_J6_w2" fromLane="0" toLane="0" dir="s" state="M"/>
    <connection from=":clusterJ4_J5_J6_w0" to="-E1.29" fromLane="0" toLane="0" dir="s" state="M"/>
    <connection from="-E0" to=":clusterJ4_J5_J6_w0" fromLane="0" toLane="0" dir="s" state="M"/>
    <connection from=":clusterJ4_J5_J6_w1" to=":clusterJ4_J5_J6_c0" fromLane="0" toLane="0" tl="clusterJ4_J5_J6" linkIndex="12" dir="s" state="M"/>
    <connection from=":clusterJ4_J5_J6_w1" to="E00" fromLane="0" toLane="0" dir="s" state="M"/>
    <connection from="-E1" to=":clusterJ4_J5_J6_w1" fromLane="0" toLane="0" dir="s" state="M"/>
    <connection from=":clusterJ4_J5_J6_w2" to="E1.35" fromLane="0" toLane="0" dir="s" state="M"/>
    <connection from="E0" to=":clusterJ4_J5_J6_w2" fromLane="0" toLane="0" dir="s" state="M"/>
    <connection from=":clusterJ4_J5_J6_w3" to=":clusterJ4_J5_J6_c1" fromLane="0" toLane="0" tl="clusterJ4_J5_J6" linkIndex="13" dir="s" state="M"/>
    <connection from=":clusterJ4_J5_J6_w3" to="-E0.56" fromLane="0" toLane="0" dir="s" state="M"/>
    <connection from="E1" to=":clusterJ4_J5_J6_w3" fromLane="0" toLane="0" dir="s" state="M"/>
</net>
