<?xml version="1.0" encoding="UTF-8"?>

<!-- generated on 2025-05-25 17:18:20 by Eclipse SUMO netedit Version 1.22.0
<neteditConfiguration xmlns:xsi="http://www.w3.org/2001/XMLSchema-instance" xsi:noNamespaceSchemaLocation="http://sumo.dlr.de/xsd/neteditConfiguration.xsd">

    <input>
        <sumocfg-file value="D:\UIT\Subjects\AI\DOAN\test\test.sumocfg"/>
        <additional-files value=""/>
        <route-files value="D:\UIT\Subjects\AI\DOAN\test\test.rou.xml"/>
        <sumo-net-file value="D:\UIT\Subjects\AI\DOAN\test\OfficialMap.net.xml"/>
    </input>

    <output>
        <output-file value="D:\UIT\Subjects\AI\DOAN\test\OfficialMap.net.xml"/>
    </output>

    <processing>
        <geometry.min-radius.fix.railways value="false"/>
        <geometry.max-grade.fix value="false"/>
        <offset.disable-normalization value="true"/>
        <lefthand value="0"/>
    </processing>

    <junctions>
        <no-internal-links value="false"/>
        <no-turnarounds value="true"/>
        <junctions.corner-detail value="5"/>
        <junctions.limit-turn-speed value="5.50"/>
        <rectangular-lane-cut value="0"/>
    </junctions>

    <pedestrian>
        <walkingareas value="1"/>
    </pedestrian>

</neteditConfiguration>
-->

<net version="1.20" junctionCornerDetail="5" walkingareas="true" limitTurnSpeed="5.50" xmlns:xsi="http://www.w3.org/2001/XMLSchema-instance" xsi:noNamespaceSchemaLocation="http://sumo.dlr.de/xsd/net_file.xsd">

    <location netOffset="0.00,0.00" convBoundary="-84.91,-47.33,43.91,63.69" origBoundary="-10000000000.00,-10000000000.00,10000000000.00,10000000000.00" projParameter="!"/>

    <edge id=":J0_w0" function="walkingarea">
        <lane id=":J0_w0_0" index="0" allow="pedestrian" speed="2.78" length="8.40" width="2.00" shape="-84.89,9.43 -84.87,7.43 -84.95,17.83 -84.93,15.83"/>
    </edge>
    <edge id=":J1_w0" function="walkingarea">
        <lane id=":J1_w0_0" index="0" allow="pedestrian" speed="2.78" length="8.40" width="2.00" shape="43.88,17.41 43.87,19.41 43.95,9.01 43.94,11.01"/>
    </edge>
    <edge id=":J2_w0" function="walkingarea">
        <lane id=":J2_w0_0" index="0" allow="pedestrian" speed="2.78" length="8.40" width="2.00" shape="-27.30,63.61 -29.30,63.56 -18.90,63.82 -20.90,63.77"/>
    </edge>
    <edge id=":J3_w0" function="walkingarea">
        <lane id=":J3_w0_0" index="0" allow="pedestrian" speed="2.78" length="8.40" width="2.00" shape="-18.34,-47.24 -16.34,-47.18 -26.74,-47.48 -24.74,-47.42"/>
    </edge>
    <edge id=":clusterJ4_J5_J6_0" function="internal">
        <lane id=":clusterJ4_J5_J6_0_0" index="0" disallow="pedestrian" speed="6.71" length="9.55" shape="-15.25,15.33 -17.90,15.67 -19.82,16.73 -20.99,18.52 -21.43,21.03"/>
    </edge>
    <edge id=":clusterJ4_J5_J6_1" function="internal">
        <lane id=":clusterJ4_J5_J6_1_0" index="0" disallow="pedestrian" speed="13.89" length="14.89" shape="-15.25,15.33 -30.14,15.11"/>
    </edge>
    <edge id=":clusterJ4_J5_J6_2" function="internal">
        <lane id=":clusterJ4_J5_J6_2_0" index="0" disallow="pedestrian" speed="8.26" length="4.00" shape="-15.25,15.33 -19.01,14.74 -19.18,14.63"/>
    </edge>
    <edge id=":clusterJ4_J5_J6_12" function="internal">
        <lane id=":clusterJ4_J5_J6_12_0" index="0" disallow="pedestrian" speed="8.26" length="10.43" shape="-19.18,14.63 -21.77,13.02 -23.54,10.18 -24.30,6.22"/>
    </edge>
    <edge id=":clusterJ4_J5_J6_3" function="internal">
        <lane id=":clusterJ4_J5_J6_3_0" index="0" disallow="pedestrian" speed="6.73" length="5.07" shape="-20.89,6.02 -20.45,8.68 -19.37,10.58 -19.22,10.68"/>
    </edge>
    <edge id=":clusterJ4_J5_J6_4" function="internal">
        <lane id=":clusterJ4_J5_J6_4_0" index="0" disallow="pedestrian" speed="13.89" length="15.02" shape="-20.89,6.02 -21.43,21.03"/>
    </edge>
    <edge id=":clusterJ4_J5_J6_5" function="internal">
        <lane id=":clusterJ4_J5_J6_5_0" index="0" disallow="pedestrian" speed="7.74" length="5.17" shape="-20.89,6.02 -21.66,9.29 -22.73,10.75"/>
    </edge>
    <edge id=":clusterJ4_J5_J6_13" function="internal">
        <lane id=":clusterJ4_J5_J6_13_0" index="0" disallow="pedestrian" speed="6.73" length="4.34" shape="-19.22,10.68 -17.63,11.73 -15.23,12.13"/>
    </edge>
    <edge id=":clusterJ4_J5_J6_14" function="internal">
        <lane id=":clusterJ4_J5_J6_14_0" index="0" disallow="pedestrian" speed="7.74" length="8.93" shape="-22.73,10.75 -23.84,12.27 -26.85,14.39 -30.14,15.11"/>
    </edge>
    <edge id=":clusterJ4_J5_J6_6" function="internal">
        <lane id=":clusterJ4_J5_J6_6_0" index="0" disallow="pedestrian" speed="6.39" length="9.41" shape="-29.97,11.91 -27.36,11.68 -25.54,10.65 -24.52,8.83 -24.30,6.22"/>
    </edge>
    <edge id=":clusterJ4_J5_J6_7" function="internal">
        <lane id=":clusterJ4_J5_J6_7_0" index="0" disallow="pedestrian" speed="13.89" length="14.74" shape="-29.97,11.91 -15.23,12.13"/>
    </edge>
    <edge id=":clusterJ4_J5_J6_8" function="internal">
        <lane id=":clusterJ4_J5_J6_8_0" index="0" disallow="pedestrian" speed="8.07" length="3.89" shape="-29.97,11.91 -26.15,12.66"/>
    </edge>
    <edge id=":clusterJ4_J5_J6_15" function="internal">
        <lane id=":clusterJ4_J5_J6_15_0" index="0" disallow="pedestrian" speed="8.07" length="10.26" shape="-26.15,12.66 -23.46,14.43 -21.89,17.22 -21.43,21.03"/>
    </edge>
    <edge id=":clusterJ4_J5_J6_9" function="internal">
        <lane id=":clusterJ4_J5_J6_9_0" index="0" disallow="pedestrian" speed="6.59" length="4.83" shape="-24.62,20.93 -24.92,18.50 -25.93,16.72 -26.21,16.54"/>
    </edge>
    <edge id=":clusterJ4_J5_J6_10" function="internal">
        <lane id=":clusterJ4_J5_J6_10_0" index="0" disallow="pedestrian" speed="13.89" length="14.71" shape="-24.62,20.93 -24.30,6.22"/>
    </edge>
    <edge id=":clusterJ4_J5_J6_11" function="internal">
        <lane id=":clusterJ4_J5_J6_11_0" index="0" disallow="pedestrian" speed="7.97" length="4.13" shape="-24.62,20.93 -23.71,17.74 -23.21,17.10"/>
    </edge>
    <edge id=":clusterJ4_J5_J6_16" function="internal">
        <lane id=":clusterJ4_J5_J6_16_0" index="0" disallow="pedestrian" speed="6.59" length="4.26" shape="-26.21,16.54 -27.67,15.59 -30.14,15.11"/>
    </edge>
    <edge id=":clusterJ4_J5_J6_17" function="internal">
        <lane id=":clusterJ4_J5_J6_17_0" index="0" disallow="pedestrian" speed="7.97" length="9.75" shape="-23.21,17.10 -21.49,14.91 -18.49,12.89 -15.23,12.13"/>
    </edge>
    <edge id=":clusterJ4_J5_J6_c0" function="crossing" crossingEdges="E00 -E0">
        <lane id=":clusterJ4_J5_J6_c0_0" index="0" allow="pedestrian" speed="2.78" length="6.40" width="4.00" shape="-17.21,10.52 -17.27,16.92" outlineShape="-15.21,10.53 -15.27,16.93 -16.63,17.04 -17.76,17.38 -18.64,17.95 -19.28,18.75 -19.19,6.85 -19.13,7.35 -18.77,8.49 -18.19,9.37 -17.41,10.01 -16.42,10.40"/>
    </edge>
    <edge id=":clusterJ4_J5_J6_c1" function="crossing" crossingEdges="-E0.56 E0">
        <lane id=":clusterJ4_J5_J6_c1_0" index="0" allow="pedestrian" speed="2.78" length="6.40" width="4.00" shape="-28.23,16.81 -27.88,10.42" outlineShape="-30.22,16.71 -29.88,10.32 -29.88,10.22 -29.88,10.32 -28.60,10.27 -27.56,9.97 -26.77,9.43 -26.23,8.64 -26.17,8.42 -25.89,10.53 -26.23,16.92 -26.53,18.98 -26.62,18.66 -27.17,17.86 -27.96,17.27 -28.97,16.88"/>
    </edge>
    <edge id=":clusterJ4_J5_J6_w0" function="walkingarea">
        <lane id=":clusterJ4_J5_J6_w0_0" index="0" allow="pedestrian" speed="2.78" length="3.83" width="4.00" shape="-19.84,21.08 -17.84,21.13 -15.28,18.93 -15.27,16.93 -16.63,17.04 -17.76,17.38 -18.64,17.95 -19.28,18.75 -19.68,19.79"/>
    </edge>
    <edge id=":clusterJ4_J5_J6_w1" function="walkingarea">
        <lane id=":clusterJ4_J5_J6_w1_0" index="0" allow="pedestrian" speed="2.78" length="3.93" width="4.00" shape="-15.21,10.53 -15.20,8.53 -17.29,5.83 -19.29,5.90 -19.13,7.35 -18.77,8.49 -18.19,9.37 -17.41,10.01 -16.42,10.40"/>
    </edge>
    <edge id=":clusterJ4_J5_J6_w2" function="walkingarea">
        <lane id=":clusterJ4_J5_J6_w2_0" index="0" allow="pedestrian" speed="2.78" length="3.52" width="4.00" shape="-25.90,6.31 -27.90,6.43 -29.78,8.32 -29.88,10.32 -28.60,10.27 -27.56,9.97 -26.77,9.43 -26.23,8.64 -25.94,7.60"/>
    </edge>
    <edge id=":clusterJ4_J5_J6_w3" function="walkingarea">
        <lane id=":clusterJ4_J5_J6_w3_0" index="0" allow="pedestrian" speed="2.78" length="3.59" width="4.00" shape="-30.22,16.71 -30.33,18.70 -28.22,20.82 -26.22,20.87 -26.31,19.67 -26.62,18.66 -27.17,17.86 -27.96,17.27 -28.97,16.88"/>
    </edge>

    <edge id="-E0" from="J1" to="clusterJ4_J5_J6" priority="-1" shape="43.91,14.21 -27.84,13.63">
        <lane id="-E0_0" index="0" allow="pedestrian" speed="13.89" length="59.15" width="2.00" shape="43.88,18.41 -15.27,17.93"/>
        <lane id="-E0_1" index="1" disallow="pedestrian" speed="13.89" length="59.15" shape="43.90,15.81 -15.25,15.33"/>
    </edge>
    <edge id="-E0.56" from="clusterJ4_J5_J6" to="J0" priority="-1" shape="-27.84,13.63 -40.57,12.95 -84.91,12.63">
        <lane id="-E0.56_0" index="0" allow="pedestrian" speed="13.89" length="54.74" width="2.00" shape="-30.28,17.71 -40.70,17.15 -84.94,16.83"/>
        <lane id="-E0.56_1" index="1" disallow="pedestrian" speed="13.89" length="54.74" shape="-30.14,15.11 -40.62,14.55 -84.92,14.23"/>
    </edge>
    <edge id="-E1" from="J3" to="clusterJ4_J5_J6" priority="-1" shape="-21.54,-47.33 -22.81,-3.41 -22.60,2.72">
        <lane id="-E1_0" index="0" allow="pedestrian" speed="13.89" length="53.21" width="2.00" shape="-17.34,-47.21 -18.61,-3.42 -18.29,5.87"/>
        <lane id="-E1_1" index="1" disallow="pedestrian" speed="13.89" length="53.21" shape="-19.94,-47.28 -21.21,-3.41 -20.89,6.02"/>
    </edge>
    <edge id="-E1.29" from="clusterJ4_J5_J6" to="J2" priority="-1" shape="-22.60,2.72 -22.86,11.36 -22.87,14.43 -24.10,63.69">
        <lane id="-E1.29_0" index="0" allow="pedestrian" speed="13.89" length="42.71" width="2.00" shape="-18.84,21.11 -19.90,63.79"/>
        <lane id="-E1.29_1" index="1" disallow="pedestrian" speed="13.89" length="42.71" shape="-21.43,21.03 -22.50,63.73"/>
    </edge>
    <edge id="E0" from="J0" to="clusterJ4_J5_J6" priority="-1" shape="-84.91,12.63 -40.57,12.95 -27.84,13.63">
        <lane id="E0_0" index="0" allow="pedestrian" speed="13.89" length="55.01" width="2.00" shape="-84.88,8.43 -40.44,8.75 -29.83,9.32"/>
        <lane id="E0_1" index="1" disallow="pedestrian" speed="13.89" length="55.01" shape="-84.90,11.03 -40.52,11.35 -29.97,11.91"/>
    </edge>
    <edge id="E00" from="clusterJ4_J5_J6" to="J1" priority="-1" shape="-27.84,13.63 43.91,14.21">
        <lane id="E00_0" index="0" allow="pedestrian" speed="13.89" length="59.15" width="2.00" shape="-15.21,9.53 43.94,10.01"/>
        <lane id="E00_1" index="1" disallow="pedestrian" speed="13.89" length="59.15" shape="-15.23,12.13 43.92,12.61"/>
    </edge>
    <edge id="E1" from="J2" to="clusterJ4_J5_J6" priority="-1" shape="-24.10,63.69 -22.86,14.43 -22.85,11.36 -22.61,7.73">
        <lane id="E1_0" index="0" allow="pedestrian" speed="13.89" length="42.74" width="2.00" shape="-28.30,63.58 -27.22,20.85"/>
        <lane id="E1_1" index="1" disallow="pedestrian" speed="13.89" length="42.74" shape="-25.70,63.65 -24.62,20.93"/>
    </edge>
    <edge id="E1.35" from="clusterJ4_J5_J6" to="J3" priority="-1" shape="-22.61,7.73 -22.83,3.98 -22.81,-3.41 -21.54,-47.33">
        <lane id="E1.35_0" index="0" allow="pedestrian" speed="13.89" length="53.73" width="2.00" shape="-26.90,6.37 -27.03,4.10 -27.01,-3.48 -25.74,-47.45"/>
        <lane id="E1.35_1" index="1" disallow="pedestrian" speed="13.89" length="53.73" shape="-24.30,6.22 -24.43,4.02 -24.41,-3.44 -23.14,-47.38"/>
    </edge>

    <tlLogic id="clusterJ4_J5_J6" type="static" programID="0" offset="0">
        <phase duration="42" state="GGgrrrGGgrrrrr"/>
        <phase duration="3"  state="yyyrrryyyrrrrr"/>
        <phase duration="37" state="rrrgGgrrrgGgGG"/>
        <phase duration="5"  state="rrrgGgrrrgGgrr"/>
        <phase duration="3"  state="rrryyyrrryyyrr"/>
    </tlLogic>

    <junction id="J0" type="dead_end" x="-84.91" y="12.63" incLanes="-E0.56_0 -E0.56_1" intLanes="" shape="-84.91,12.63 -84.95,17.83 -84.91,12.63"/>
    <junction id="J1" type="dead_end" x="43.91" y="14.21" incLanes="E00_0 E00_1" intLanes="" shape="43.91,14.21 43.95,9.01 43.91,14.21"/>
    <junction id="J2" type="dead_end" x="-24.10" y="63.69" incLanes="-E1.29_0 -E1.29_1" intLanes="" shape="-24.10,63.69 -29.30,63.56 -18.90,63.82"/>
    <junction id="J3" type="dead_end" x="-21.54" y="-47.33" incLanes="E1.35_0 E1.35_1" intLanes="" shape="-21.54,-47.33 -26.74,-47.48 -21.54,-47.33"/>
    <junction id="clusterJ4_J5_J6" type="traffic_light" x="-24.35" y="8.03" incLanes="-E0_0 -E0_1 -E1_0 -E1_1 E0_0 E0_1 E1_0 E1_1 :clusterJ4_J5_J6_w1_0 :clusterJ4_J5_J6_w3_0" intLanes=":clusterJ4_J5_J6_0_0 :clusterJ4_J5_J6_1_0 :clusterJ4_J5_J6_12_0 :clusterJ4_J5_J6_13_0 :clusterJ4_J5_J6_4_0 :clusterJ4_J5_J6_14_0 :clusterJ4_J5_J6_6_0 :clusterJ4_J5_J6_7_0 :clusterJ4_J5_J6_15_0 :clusterJ4_J5_J6_16_0 :clusterJ4_J5_J6_10_0 :clusterJ4_J5_J6_17_0 :clusterJ4_J5_J6_c0_0 :clusterJ4_J5_J6_c1_0" shape="-15.28,18.93 -15.20,8.53 -16.32,8.22 -16.72,7.84 -17.02,7.31 -17.21,6.64 -17.29,5.81 -27.90,6.43 -28.05,7.53 -28.31,7.90 -28.68,8.16 -29.17,8.30 -29.78,8.32 -30.33,18.70 -29.14,18.99 -28.72,19.29 -28.43,19.70 -28.27,20.20 -28.22,20.82 -17.84,21.14 -17.53,19.90 -17.17,19.47 -16.68,19.17 -16.05,18.99">
        <request index="0"  response="01000000000000" foes="01000100010000" cont="0"/>
        <request index="1"  response="11101000100000" foes="11111100110000" cont="0"/>
        <request index="2"  response="01100111100000" foes="01110111110000" cont="1"/>
        <request index="3"  response="01000010000000" foes="01100010000000" cont="1"/>
        <request index="4"  response="00000110000111" foes="00100110000111" cont="0"/>
        <request index="5"  response="10011110000110" foes="10011110000110" cont="1"/>
        <request index="6"  response="10000000000000" foes="10010000000100" cont="0"/>
        <request index="7"  response="11100000101000" foes="11110000111100" cont="0"/>
        <request index="8"  response="10100000100011" foes="10110000110111" cont="1"/>
        <request index="9"  response="10000000000010" foes="10000000100010" cont="1"/>
        <request index="10" response="00000111000110" foes="00000111100110" cont="0"/>
        <request index="11" response="01000110011110" foes="01000110011110" cont="1"/>
        <request index="12" response="00000000000000" foes="00100010001111" cont="0"/>
        <request index="13" response="00000000000000" foes="00001111100010" cont="0"/>
    </junction>

    <junction id=":clusterJ4_J5_J6_12_0" type="internal" x="-19.18" y="14.63" incLanes=":clusterJ4_J5_J6_2_0 E0_1" intLanes=":clusterJ4_J5_J6_4_0 :clusterJ4_J5_J6_5_0 :clusterJ4_J5_J6_6_0 :clusterJ4_J5_J6_7_0 :clusterJ4_J5_J6_10_0 :clusterJ4_J5_J6_11_0 :clusterJ4_J5_J6_c0_0"/>
    <junction id=":clusterJ4_J5_J6_13_0" type="internal" x="-19.22" y="10.68" incLanes=":clusterJ4_J5_J6_3_0" intLanes=":clusterJ4_J5_J6_7_0 :clusterJ4_J5_J6_11_0 :clusterJ4_J5_J6_c0_0"/>
    <junction id=":clusterJ4_J5_J6_14_0" type="internal" x="-22.73" y="10.75" incLanes=":clusterJ4_J5_J6_5_0 E1_1" intLanes=":clusterJ4_J5_J6_1_0 :clusterJ4_J5_J6_2_0 :clusterJ4_J5_J6_7_0 :clusterJ4_J5_J6_8_0 :clusterJ4_J5_J6_9_0 :clusterJ4_J5_J6_10_0 :clusterJ4_J5_J6_c1_0"/>
    <junction id=":clusterJ4_J5_J6_15_0" type="internal" x="-26.15" y="12.66" incLanes=":clusterJ4_J5_J6_8_0 -E0_1" intLanes=":clusterJ4_J5_J6_0_0 :clusterJ4_J5_J6_1_0 :clusterJ4_J5_J6_4_0 :clusterJ4_J5_J6_5_0 :clusterJ4_J5_J6_10_0 :clusterJ4_J5_J6_11_0 :clusterJ4_J5_J6_c1_0"/>
    <junction id=":clusterJ4_J5_J6_16_0" type="internal" x="-26.21" y="16.54" incLanes=":clusterJ4_J5_J6_9_0" intLanes=":clusterJ4_J5_J6_1_0 :clusterJ4_J5_J6_5_0 :clusterJ4_J5_J6_c1_0"/>
    <junction id=":clusterJ4_J5_J6_17_0" type="internal" x="-23.21" y="17.10" incLanes=":clusterJ4_J5_J6_11_0 -E1_1" intLanes=":clusterJ4_J5_J6_1_0 :clusterJ4_J5_J6_2_0 :clusterJ4_J5_J6_3_0 :clusterJ4_J5_J6_4_0 :clusterJ4_J5_J6_7_0 :clusterJ4_J5_J6_8_0 :clusterJ4_J5_J6_c0_0"/>

    <connection from="-E0" to="-E1.29" fromLane="1" toLane="1" via=":clusterJ4_J5_J6_0_0" tl="clusterJ4_J5_J6" linkIndex="0" dir="r" state="o"/>
    <connection from="-E0" to="-E0.56" fromLane="1" toLane="1" via=":clusterJ4_J5_J6_1_0" tl="clusterJ4_J5_J6" linkIndex="1" dir="s" state="o"/>
    <connection from="-E0" to="E1.35" fromLane="1" toLane="1" via=":clusterJ4_J5_J6_2_0" tl="clusterJ4_J5_J6" linkIndex="2" dir="l" state="o"/>
    <connection from="-E1" to="E00" fromLane="1" toLane="1" via=":clusterJ4_J5_J6_3_0" tl="clusterJ4_J5_J6" linkIndex="3" dir="r" state="o"/>
    <connection from="-E1" to="-E1.29" fromLane="1" toLane="1" via=":clusterJ4_J5_J6_4_0" tl="clusterJ4_J5_J6" linkIndex="4" dir="s" state="o"/>
    <connection from="-E1" to="-E0.56" fromLane="1" toLane="1" via=":clusterJ4_J5_J6_5_0" tl="clusterJ4_J5_J6" linkIndex="5" dir="l" state="o"/>
    <connection from="E0" to="E1.35" fromLane="1" toLane="1" via=":clusterJ4_J5_J6_6_0" tl="clusterJ4_J5_J6" linkIndex="6" dir="r" state="o"/>
    <connection from="E0" to="E00" fromLane="1" toLane="1" via=":clusterJ4_J5_J6_7_0" tl="clusterJ4_J5_J6" linkIndex="7" dir="s" state="o"/>
    <connection from="E0" to="-E1.29" fromLane="1" toLane="1" via=":clusterJ4_J5_J6_8_0" tl="clusterJ4_J5_J6" linkIndex="8" dir="l" state="o"/>
    <connection from="E1" to="-E0.56" fromLane="1" toLane="1" via=":clusterJ4_J5_J6_9_0" tl="clusterJ4_J5_J6" linkIndex="9" dir="r" state="o"/>
    <connection from="E1" to="E1.35" fromLane="1" toLane="1" via=":clusterJ4_J5_J6_10_0" tl="clusterJ4_J5_J6" linkIndex="10" dir="s" state="o"/>
    <connection from="E1" to="E00" fromLane="1" toLane="1" via=":clusterJ4_J5_J6_11_0" tl="clusterJ4_J5_J6" linkIndex="11" dir="l" state="o"/>

    <connection from=":clusterJ4_J5_J6_0" to="-E1.29" fromLane="0" toLane="1" dir="r" state="M"/>
    <connection from=":clusterJ4_J5_J6_1" to="-E0.56" fromLane="0" toLane="1" dir="s" state="M"/>
    <connection from=":clusterJ4_J5_J6_2" to="E1.35" fromLane="0" toLane="1" via=":clusterJ4_J5_J6_12_0" dir="l" state="m"/>
    <connection from=":clusterJ4_J5_J6_12" to="E1.35" fromLane="0" toLane="1" dir="l" state="M"/>
    <connection from=":clusterJ4_J5_J6_3" to="E00" fromLane="0" toLane="1" via=":clusterJ4_J5_J6_13_0" dir="r" state="m"/>
    <connection from=":clusterJ4_J5_J6_13" to="E00" fromLane="0" toLane="1" dir="r" state="m"/>
    <connection from=":clusterJ4_J5_J6_4" to="-E1.29" fromLane="0" toLane="1" dir="s" state="M"/>
    <connection from=":clusterJ4_J5_J6_5" to="-E0.56" fromLane="0" toLane="1" via=":clusterJ4_J5_J6_14_0" dir="l" state="m"/>
    <connection from=":clusterJ4_J5_J6_14" to="-E0.56" fromLane="0" toLane="1" dir="l" state="m"/>
    <connection from=":clusterJ4_J5_J6_6" to="E1.35" fromLane="0" toLane="1" dir="r" state="M"/>
    <connection from=":clusterJ4_J5_J6_7" to="E00" fromLane="0" toLane="1" dir="s" state="M"/>
    <connection from=":clusterJ4_J5_J6_8" to="-E1.29" fromLane="0" toLane="1" via=":clusterJ4_J5_J6_15_0" dir="l" state="m"/>
    <connection from=":clusterJ4_J5_J6_15" to="-E1.29" fromLane="0" toLane="1" dir="l" state="M"/>
    <connection from=":clusterJ4_J5_J6_9" to="-E0.56" fromLane="0" toLane="1" via=":clusterJ4_J5_J6_16_0" dir="r" state="m"/>
    <connection from=":clusterJ4_J5_J6_16" to="-E0.56" fromLane="0" toLane="1" dir="r" state="m"/>
    <connection from=":clusterJ4_J5_J6_10" to="E1.35" fromLane="0" toLane="1" dir="s" state="M"/>
    <connection from=":clusterJ4_J5_J6_11" to="E00" fromLane="0" toLane="1" via=":clusterJ4_J5_J6_17_0" dir="l" state="m"/>
    <connection from=":clusterJ4_J5_J6_17" to="E00" fromLane="0" toLane="1" dir="l" state="m"/>

    <connection from=":J0_w0" to="E0" fromLane="0" toLane="0" dir="s" state="M"/>
    <connection from="-E0.56" to=":J0_w0" fromLane="0" toLane="0" dir="s" state="M"/>
    <connection from=":J1_w0" to="-E0" fromLane="0" toLane="0" dir="s" state="M"/>
    <connection from="E00" to=":J1_w0" fromLane="0" toLane="0" dir="s" state="M"/>
    <connection from=":J2_w0" to="E1" fromLane="0" toLane="0" dir="s" state="M"/>
    <connection from="-E1.29" to=":J2_w0" fromLane="0" toLane="0" dir="s" state="M"/>
    <connection from=":J3_w0" to="-E1" fromLane="0" toLane="0" dir="s" state="M"/>
    <connection from="E1.35" to=":J3_w0" fromLane="0" toLane="0" dir="s" state="M"/>
    <connection from=":clusterJ4_J5_J6_c0" to=":clusterJ4_J5_J6_w0" fromLane="0" toLane="0" dir="s" state="M"/>
    <connection from=":clusterJ4_J5_J6_c1" to=":clusterJ4_J5_J6_w2" fromLane="0" toLane="0" dir="s" state="M"/>
    <connection from=":clusterJ4_J5_J6_w0" to="-E1.29" fromLane="0" toLane="0" dir="s" state="M"/>
    <connection from="-E0" to=":clusterJ4_J5_J6_w0" fromLane="0" toLane="0" dir="s" state="M"/>
    <connection from=":clusterJ4_J5_J6_w1" to=":clusterJ4_J5_J6_c0" fromLane="0" toLane="0" tl="clusterJ4_J5_J6" linkIndex="12" dir="s" state="M"/>
    <connection from=":clusterJ4_J5_J6_w1" to="E00" fromLane="0" toLane="0" dir="s" state="M"/>
    <connection from="-E1" to=":clusterJ4_J5_J6_w1" fromLane="0" toLane="0" dir="s" state="M"/>
    <connection from=":clusterJ4_J5_J6_w2" to="E1.35" fromLane="0" toLane="0" dir="s" state="M"/>
    <connection from="E0" to=":clusterJ4_J5_J6_w2" fromLane="0" toLane="0" dir="s" state="M"/>
    <connection from=":clusterJ4_J5_J6_w3" to=":clusterJ4_J5_J6_c1" fromLane="0" toLane="0" tl="clusterJ4_J5_J6" linkIndex="13" dir="s" state="M"/>
    <connection from=":clusterJ4_J5_J6_w3" to="-E0.56" fromLane="0" toLane="0" dir="s" state="M"/>
    <connection from="E1" to=":clusterJ4_J5_J6_w3" fromLane="0" toLane="0" dir="s" state="M"/>
</net>
