<?xml version="1.0" encoding="UTF-8"?>

<!-- generated on 2025-04-19 23:19:43 by Eclipse SUMO netedit Version 1.22.0
-->

<routes xmlns:xsi="http://www.w3.org/2001/XMLSchema-instance" xsi:noNamespaceSchemaLocation="http://sumo.dlr.de/xsd/routes_file.xsd">
    <!-- Vehicles, persons and containers (sorted by depart) -->
    <flow id="f_0" begin="0.00" from="E0" to="-E1.29" end="3600.00" vehsPerHour="1800"/>
    <flow id="f_1" begin="0.00" from="-E0" to="-E0.56" end="3600.00" vehsPerHour="1800"/>
    <flow id="f_2" begin="0.00" from="-E1" to="-E0.56" end="3600.00" vehsPerHour="1800"/>
    <flow id="f_3" begin="0.00" from="E1" to="E1.35" end="3600.00" vehsPerHour="1800"/>
</routes>
