<?xml version="1.0" encoding="UTF-8"?>

<!-- generated on 2025-05-25 17:20:28 by Eclipse SUMO netedit Version 1.22.0
-->

<routes xmlns:xsi="http://www.w3.org/2001/XMLSchema-instance" xsi:noNamespaceSchemaLocation="http://sumo.dlr.de/xsd/routes_file.xsd">
    <!-- Vehicles, persons and containers (sorted by depart) -->
    <flow id="f_0" begin="0.00" from="E0" to="E1.35" end="3600.00" probability="0.07000000000000000666"/>
    <flow id="f_1" begin="0.00" from="E0" to="-E1.29" number="1800" probability="0.07000000000000000666"/>
    <flow id="f_10" type="DEFAULT_TAXITYPE" begin="0.00" color="170,255,244" from="E1" to="E1.35" end="3600.00" probability="0.10000000000000000555"/>
    <flow id="f_11" type="DEFAULT_TAXITYPE" begin="0.00" color="170,255,244" from="-E1" to="-E1.29" end="3600.00" probability="0.09000000000000001055"/>
    <flow id="f_13" type="DEFAULT_CONTAINERTYPE" begin="0.00" color="244,45,62" from="E0" to="-E1.29" end="3600.00" probability="0.07000000000000000666"/>
    <flow id="f_14" type="DEFAULT_CONTAINERTYPE" begin="0.00" color="244,45,62" from="-E0" to="E1.35" end="3600.00" probability="0.08000000000000000167"/>
    <flow id="f_15" type="DEFAULT_CONTAINERTYPE" begin="0.00" color="244,45,62" from="-E0" to="-E0.56" end="3600.00" vehsPerHour="1800"/>
    <flow id="f_2" begin="0.00" from="E0" to="E00" end="3600.00" probability="0.07000000000000000666"/>
    <flow id="f_3" begin="0.00" from="-E1" to="-E0.56" end="3600.00" probability="0.07000000000000000666"/>
    <flow id="f_4" begin="0.00" from="-E1" to="-E1.29" end="3600.00" probability="0.08000000000000000167"/>
    <flow id="f_6" begin="0.00" from="-E0" to="-E1.29" end="3600.00" probability="0.07000000000000000666"/>
    <flow id="f_7" begin="0.00" from="-E0" to="E1.35" end="3600.00" probability="0.07000000000000000666"/>
    <flow id="f_8" begin="0.00" from="E1" to="-E0.56" end="3600.00" probability="0.10000000000000000555"/>
    <flow id="f_9" begin="0.00" from="E1" to="E00" end="3600.00" probability="0.10000000000000000555"/>
</routes>
