<?xml version="1.0" encoding="UTF-8"?>

<!-- generated on 2025-04-12 22:25:18 by Eclipse SUMO netedit Version 1.22.0
<neteditConfiguration xmlns:xsi="http://www.w3.org/2001/XMLSchema-instance" xsi:noNamespaceSchemaLocation="http://sumo.dlr.de/xsd/neteditConfiguration.xsd">

    <input>
        <sumocfg-file value="D:\UIT\Subjects\AI\DOAN\test\test.sumocfg"/>
        <additional-files value="D:\UIT\Subjects\AI\DOAN\test\test.add.xml"/>
        <route-files value="D:\UIT\Subjects\AI\DOAN\test\test.rou.xml"/>
        <sumo-net-file value="D:\UIT\Subjects\AI\DOAN\test\test.net.xml"/>
    </input>

    <output>
        <output-file value="D:\UIT\Subjects\AI\DOAN\test\test.net.xml"/>
    </output>

    <processing>
        <offset.disable-normalization value="true"/>
    </processing>

    <junctions>
        <no-turnarounds value="true"/>
    </junctions>

    <netedit>
        <new-network value="false"/>
    </netedit>

</neteditConfiguration>
-->

<net version="1.20" junctionCornerDetail="5" limitTurnSpeed="5.50" xmlns:xsi="http://www.w3.org/2001/XMLSchema-instance" xsi:noNamespaceSchemaLocation="http://sumo.dlr.de/xsd/net_file.xsd">

    <location netOffset="0.00,0.00" convBoundary="-85.89,-29.67,96.33,62.28" origBoundary="10000000000.00,10000000000.00,-10000000000.00,-10000000000.00" projParameter="!"/>

    <edge id=":J32_0" function="internal">
        <lane id=":J32_0_0" index="0" speed="8.12" length="14.06" shape="-1.39,17.16 -0.88,12.03 0.19,8.36 1.82,6.14 4.02,5.38"/>
        <lane id=":J32_0_1" index="1" speed="7.34" length="11.29" shape="-1.39,17.16 -0.93,13.43 0.14,10.76 1.80,9.14 4.07,8.58"/>
        <lane id=":J32_0_2" index="2" speed="6.52" length="8.69" shape="-1.39,17.16 -0.97,14.83 0.09,13.16 1.78,12.14 4.12,11.78"/>
    </edge>
    <edge id=":J33_0" function="internal">
        <lane id=":J33_0_0" index="0" speed="8.62" length="10.23" shape="84.97,4.16 86.08,5.43 87.58,8.31 88.99,11.35 89.82,13.12"/>
        <lane id=":J33_0_1" index="1" speed="7.52" length="7.65" shape="85.01,7.36 85.88,7.72 86.97,8.79 88.28,10.59 89.82,13.12"/>
    </edge>
    <edge id=":J34_0" function="internal">
        <lane id=":J34_0_0" index="0" speed="13.89" length="0.60" shape="88.85,61.46 88.70,61.56 88.59,61.61 88.47,61.65 88.30,61.69"/>
    </edge>
    <edge id=":J35_0" function="internal">
        <lane id=":J35_0_0" index="0" speed="3.92" length="2.27" shape="-1.75,60.67 -2.32,60.46 -2.72,60.12 -2.95,59.65 -3.01,59.04"/>
    </edge>
    <edge id=":J36_0" function="internal">
        <lane id=":J36_0_0" index="0" speed="13.89" length="0.30" shape="96.85,45.65 96.74,45.93"/>
    </edge>
    <edge id=":J37_0" function="internal">
        <lane id=":J37_0_0" index="0" speed="13.89" length="0.10" shape="97.08,33.37 97.10,33.44"/>
    </edge>
    <edge id=":clusterJ20_J21_J22_0" function="internal">
        <lane id=":clusterJ20_J21_J22_0_0" index="0" speed="13.89" length="11.10" shape="-41.97,6.13 -53.07,6.14"/>
    </edge>
    <edge id=":clusterJ20_J21_J22_1" function="internal">
        <lane id=":clusterJ20_J21_J22_1_0" index="0" speed="6.40" length="9.04" shape="-47.20,-3.48 -47.01,-0.99 -46.06,0.80 -44.36,1.89 -41.90,2.29"/>
    </edge>
    <edge id=":clusterJ20_J21_J22_2" function="internal">
        <lane id=":clusterJ20_J21_J22_2_0" index="0" speed="13.89" length="11.17" shape="-53.07,2.16 -41.90,2.29"/>
    </edge>
    <edge id=":clusterJ30_J31_0" function="internal">
        <lane id=":clusterJ30_J31_0_0" index="0" speed="13.89" length="0.28" shape="42.06,-4.75 41.79,-4.73"/>
        <lane id=":clusterJ30_J31_0_1" index="1" speed="13.89" length="0.28" shape="42.08,-7.95 41.80,-7.93"/>
        <lane id=":clusterJ30_J31_0_2" index="2" speed="13.89" length="0.28" shape="42.10,-11.15 41.80,-11.13"/>
    </edge>
    <edge id=":clusterJ30_J31_3" function="internal">
        <lane id=":clusterJ30_J31_3_0" index="0" speed="13.89" length="0.32" shape="41.82,-20.75 42.16,-20.73"/>
        <lane id=":clusterJ30_J31_3_1" index="1" speed="13.89" length="0.32" shape="41.81,-17.55 42.14,-17.53"/>
        <lane id=":clusterJ30_J31_3_2" index="2" speed="13.89" length="0.32" shape="41.81,-14.35 42.12,-14.33"/>
    </edge>
    <edge id=":clusterJ30_J31_6" function="internal">
        <lane id=":clusterJ30_J31_6_0" index="0" speed="3.66" length="2.35" shape="41.81,-14.35 43.01,-13.54 43.41,-12.74"/>
    </edge>
    <edge id=":clusterJ30_J31_7" function="internal">
        <lane id=":clusterJ30_J31_7_0" index="0" speed="3.66" length="2.35" shape="43.41,-12.74 43.01,-11.94 41.80,-11.13"/>
    </edge>

    <edge id="-E1" from="J9" to="clusterJ20_J21_J22" priority="-1" shape="-13.89,4.42 -46.29,4.55 -47.37,4.55">
        <lane id="-E1_0" index="0" speed="13.89" length="28.09" shape="-13.88,6.02 -41.97,6.13"/>
    </edge>
    <edge id="-E1.33" from="clusterJ20_J21_J22" to="J8" priority="-1" shape="-47.37,4.55 -85.89,4.52">
        <lane id="-E1.33_0" index="0" speed="13.89" length="32.82" shape="-53.07,6.14 -85.89,6.12"/>
    </edge>
    <edge id="-E3" from="J28" to="clusterJ30_J31" priority="-1" shape="79.02,-12.51 44.80,-12.73">
        <lane id="-E3_0" index="0" speed="13.89" length="36.91" shape="78.96,-4.51 42.06,-4.75"/>
        <lane id="-E3_1" index="1" speed="13.89" length="36.91" shape="78.99,-7.71 42.08,-7.95"/>
        <lane id="-E3_2" index="2" speed="13.89" length="36.91" shape="79.01,-10.91 42.10,-11.15"/>
    </edge>
    <edge id="-E3.31" from="clusterJ30_J31" to="J27" priority="-1" shape="44.80,-12.73 8.07,-12.79">
        <lane id="-E3.31_0" index="0" speed="13.89" length="33.74" shape="41.79,-4.73 8.06,-4.79"/>
        <lane id="-E3.31_1" index="1" speed="13.89" length="33.74" shape="41.80,-7.93 8.06,-7.99"/>
        <lane id="-E3.31_2" index="2" speed="13.89" length="33.74" shape="41.80,-11.13 8.07,-11.19"/>
    </edge>
    <edge id="E1" from="J8" to="clusterJ20_J21_J22" priority="-1" shape="-85.89,4.52 -51.14,3.72">
        <lane id="E1_0" index="0" speed="13.89" length="32.87" shape="-85.93,2.92 -53.07,2.16"/>
    </edge>
    <edge id="E1.34" from="clusterJ20_J21_J22" to="J9" priority="-1" shape="-51.14,3.72 -13.89,4.42">
        <lane id="E1.34_0" index="0" speed="13.89" length="28.05" shape="-41.90,2.29 -13.86,2.82"/>
    </edge>
    <edge id="E2" from="J19" to="clusterJ20_J21_J22" priority="-1" shape="-47.04,-29.67 -48.88,-2.28">
        <lane id="E2_0" index="0" speed="13.89" length="26.14" shape="-45.44,-29.56 -47.20,-3.48"/>
    </edge>
    <edge id="E3" from="J27" to="clusterJ30_J31" priority="-1" shape="8.07,-12.79 39.12,-12.75">
        <lane id="E3_0" index="0" speed="13.89" length="33.74" shape="8.08,-20.79 41.82,-20.75"/>
        <lane id="E3_1" index="1" speed="13.89" length="33.74" shape="8.08,-17.59 41.81,-17.55"/>
        <lane id="E3_2" index="2" speed="13.89" length="33.74" shape="8.07,-14.39 41.81,-14.35"/>
    </edge>
    <edge id="E3.33" from="clusterJ30_J31" to="J28" priority="-1" shape="39.12,-12.75 79.02,-12.51">
        <lane id="E3.33_0" index="0" speed="13.89" length="36.91" shape="42.16,-20.73 79.06,-20.51"/>
        <lane id="E3.33_1" index="1" speed="13.89" length="36.91" shape="42.14,-17.53 79.05,-17.31"/>
        <lane id="E3.33_2" index="2" speed="13.89" length="36.91" shape="42.12,-14.33 79.03,-14.11"/>
    </edge>
    <edge id="E4" from="J32" to="J33" priority="-1">
        <lane id="E4_0" index="0" speed="100.00" length="80.95" shape="4.02,5.38 84.97,4.16"/>
        <lane id="E4_1" index="1" speed="13.89" length="80.95" shape="4.07,8.58 85.01,7.36"/>
        <lane id="E4_2" index="2" speed="13.89" length="80.95" shape="4.12,11.78 85.06,10.56"/>
    </edge>
    <edge id="E5" from="J33" to="J37" priority="-1" shape="87.29,12.13 88.25,13.60 89.18,15.23 90.08,17.01 90.95,18.94 91.79,21.02 92.60,23.26 93.38,25.65 94.12,28.19 94.84,30.89 95.53,33.74">
        <lane id="E5_0" index="0" speed="13.89" length="21.60" shape="89.82,13.12 90.59,14.47 91.52,16.32 92.42,18.31 93.28,20.45 94.11,22.74 94.91,25.18 95.66,27.76 96.39,30.50 97.08,33.37"/>
    </edge>
    <edge id="E5.23" from="J37" to="J36" priority="-1" shape="95.53,33.74 96.08,36.64 96.33,39.24 96.29,41.54 95.94,43.53 95.30,45.22">
        <lane id="E5.23_0" index="0" speed="13.89" length="12.43" shape="97.10,33.44 97.67,36.41 97.93,39.18 97.89,41.69 97.49,43.96 96.85,45.65"/>
    </edge>
    <edge id="E5.35" from="J36" to="J34" priority="-1" shape="95.30,45.22 93.80,49.08 92.46,52.37 91.26,55.07 90.22,57.20 89.32,58.75 88.58,59.73 87.98,60.12">
        <lane id="E5.35_0" index="0" speed="13.89" length="17.62" shape="96.74,45.93 95.29,49.67 93.93,52.99 92.71,55.74 91.63,57.95 90.66,59.64 89.69,60.92 88.85,61.46"/>
    </edge>
    <edge id="E6" from="J34" to="J35" priority="-1" shape="87.98,60.12 87.39,60.24 86.64,60.37 85.75,60.49 84.71,60.62 83.54,60.75 82.24,60.87 80.82,60.99 79.28,61.11 77.63,61.23 75.87,61.35 74.02,61.46 72.08,61.56 70.05,61.66 67.94,61.76 65.75,61.85 63.51,61.93 61.20,62.01 58.83,62.07 56.42,62.13 53.97,62.18 51.47,62.22 48.95,62.25 46.41,62.27 43.85,62.28 41.28,62.27 38.70,62.25 36.13,62.22 33.56,62.18 31.01,62.12 28.47,62.04 25.97,61.95 23.49,61.85 21.06,61.72 18.66,61.58 16.32,61.43 14.04,61.25 11.82,61.06 9.67,60.84 7.60,60.60 5.61,60.35 3.70,60.07 1.90,59.77 0.19,59.45 -1.41,59.10">
        <lane id="E6_0" index="0" speed="13.89" length="90.33" shape="88.30,61.69 87.68,61.81 86.88,61.95 85.96,62.08 84.90,62.21 83.70,62.34 82.38,62.46 80.95,62.58 79.40,62.71 77.74,62.83 75.97,62.95 74.11,63.06 72.16,63.16 70.13,63.26 68.01,63.36 65.81,63.45 63.57,63.53 61.25,63.61 58.87,63.67 56.46,63.73 54.00,63.78 51.49,63.82 48.97,63.85 46.42,63.87 43.85,63.88 41.27,63.87 38.68,63.85 36.11,63.82 33.53,63.78 30.97,63.72 28.42,63.64 25.91,63.55 23.42,63.45 20.97,63.32 18.56,63.18 16.21,63.03 13.91,62.84 11.67,62.65 9.50,62.43 7.41,62.19 5.39,61.94 3.45,61.65 1.62,61.35 -0.13,61.02 -1.75,60.67"/>
    </edge>
    <edge id="E7" from="J35" to="J32" priority="-1">
        <lane id="E7_0" index="0" speed="13.89" length="41.91" shape="-3.01,59.04 -1.39,17.16"/>
    </edge>

    <tlLogic id="clusterJ20_J21_J22" type="static" programID="0" offset="0">
        <phase duration="42" state="GrG"/>
        <phase duration="3"  state="Gry"/>
        <phase duration="42" state="GGr"/>
        <phase duration="3"  state="Gyr"/>
    </tlLogic>

    <junction id="J19" type="dead_end" x="-47.04" y="-29.67" incLanes="" intLanes="" shape="-47.04,-29.67 -43.85,-29.46"/>
    <junction id="J27" type="dead_end" x="8.07" y="-12.79" incLanes="-E3.31_0 -E3.31_1 -E3.31_2" intLanes="" shape="8.07,-12.79 8.08,-22.39 8.06,-3.19"/>
    <junction id="J28" type="dead_end" x="79.02" y="-12.51" incLanes="E3.33_0 E3.33_1 E3.33_2" intLanes="" shape="79.02,-12.51 78.95,-2.91 79.07,-22.11"/>
    <junction id="J32" type="priority" x="0.35" y="13.43" incLanes="E7_0" intLanes=":J32_0_0 :J32_0_1 :J32_0_2" shape="4.14,13.38 4.00,3.78 2.01,4.17 0.34,5.30 -0.99,7.16 -1.99,9.74 -2.66,13.05 -2.99,17.10 0.21,17.22 0.71,15.11 1.26,14.37 2.02,13.83 2.98,13.50">
        <request index="0" response="000" foes="000" cont="0"/>
        <request index="1" response="000" foes="000" cont="0"/>
        <request index="2" response="000" foes="000" cont="0"/>
    </junction>
    <junction id="J33" type="priority" x="87.29" y="12.13" incLanes="E4_0 E4_1 E4_2" intLanes=":J33_0_0 :J33_0_1" shape="88.47,13.99 91.16,12.24 89.55,9.34 88.24,7.07 86.89,4.87 85.72,3.22 84.94,2.56 85.09,12.16 86.50,12.35 87.10,12.60 87.62,12.96 88.08,13.42">
        <request index="0" response="10" foes="10" cont="0"/>
        <request index="1" response="00" foes="01" cont="0"/>
    </junction>
    <junction id="J34" type="priority" x="87.98" y="60.12" incLanes="E5.35_0" intLanes=":J34_0_0" shape="89.72,62.80 87.98,60.12 88.61,63.26 89.05,63.16 89.20,63.11 89.34,63.04 89.51,62.94">
        <request index="0" response="0" foes="0" cont="0"/>
    </junction>
    <junction id="J35" type="priority" x="-1.41" y="59.10" incLanes="E6_0" intLanes=":J35_0_0" shape="-2.09,62.23 -1.41,59.10 -4.61,58.98 -4.38,60.54 -4.03,61.14 -3.54,61.62 -2.89,61.98">
        <request index="0" response="0" foes="0" cont="0"/>
    </junction>
    <junction id="J36" type="priority" x="95.30" y="45.22" incLanes="E5.23_0" intLanes=":J36_0_0" shape="98.34,46.22 95.35,45.09 95.25,45.35 98.23,46.51">
        <request index="0" response="0" foes="0" cont="0"/>
    </junction>
    <junction id="J37" type="priority" x="95.53" y="33.74" incLanes="E5_0" intLanes=":J37_0_0" shape="95.54,33.79 98.68,33.19 98.63,32.94 95.51,33.69">
        <request index="0" response="0" foes="0" cont="0"/>
    </junction>
    <junction id="J8" type="dead_end" x="-85.89" y="4.52" incLanes="-E1.33_0" intLanes="" shape="-85.89,4.52 -85.96,1.32 -85.89,7.72"/>
    <junction id="J9" type="dead_end" x="-13.89" y="4.42" incLanes="E1.34_0" intLanes="" shape="-13.89,4.42 -13.88,7.62 -13.83,1.22"/>
    <junction id="clusterJ20_J21_J22" type="traffic_light" x="-49.13" y="2.00" incLanes="-E1_0 E2_0 E1_0" intLanes=":clusterJ20_J21_J22_0_0 :clusterJ20_J21_J22_1_0 :clusterJ20_J21_J22_2_0" shape="-42.00,7.73 -41.87,0.69 -44.06,0.21 -44.80,-0.36 -45.30,-1.15 -45.57,-2.15 -45.60,-3.37 -48.79,-3.59 -49.39,-1.32 -50.00,-0.52 -50.81,0.06 -51.83,0.42 -53.06,0.56 -53.07,7.74">
        <request index="0" response="000" foes="000" cont="0"/>
        <request index="1" response="100" foes="100" cont="0"/>
        <request index="2" response="000" foes="010" cont="0"/>
    </junction>
    <junction id="clusterJ30_J31" type="priority" x="41.96" y="-12.74" incLanes="-E3_0 -E3_1 -E3_2 E3_0 E3_1 E3_2" intLanes=":clusterJ30_J31_0_0 :clusterJ30_J31_0_1 :clusterJ30_J31_0_2 :clusterJ30_J31_3_0 :clusterJ30_J31_3_1 :clusterJ30_J31_3_2 :clusterJ30_J31_7_0" shape="42.05,-3.15 42.17,-22.33 41.82,-22.35 41.79,-3.13">
        <request index="0" response="0000000" foes="1000000" cont="0"/>
        <request index="1" response="0000000" foes="1000000" cont="0"/>
        <request index="2" response="0000000" foes="1000000" cont="0"/>
        <request index="3" response="0000000" foes="0000000" cont="0"/>
        <request index="4" response="0000000" foes="0000000" cont="0"/>
        <request index="5" response="0000000" foes="0000000" cont="0"/>
        <request index="6" response="0000111" foes="0000111" cont="1"/>
    </junction>

    <junction id=":clusterJ30_J31_7_0" type="internal" x="43.41" y="-12.74" incLanes=":clusterJ30_J31_6_0 -E3_0 -E3_1 -E3_2" intLanes=":clusterJ30_J31_0_0 :clusterJ30_J31_0_1 :clusterJ30_J31_0_2"/>

    <connection from="-E1" to="-E1.33" fromLane="0" toLane="0" via=":clusterJ20_J21_J22_0_0" tl="clusterJ20_J21_J22" linkIndex="0" dir="s" state="O"/>
    <connection from="-E3" to="-E3.31" fromLane="0" toLane="0" keepClear="0" via=":clusterJ30_J31_0_0" dir="s" state="M"/>
    <connection from="-E3" to="-E3.31" fromLane="1" toLane="1" keepClear="0" via=":clusterJ30_J31_0_1" dir="s" state="M"/>
    <connection from="-E3" to="-E3.31" fromLane="2" toLane="2" keepClear="0" via=":clusterJ30_J31_0_2" dir="s" state="M"/>
    <connection from="E1" to="E1.34" fromLane="0" toLane="0" via=":clusterJ20_J21_J22_2_0" tl="clusterJ20_J21_J22" linkIndex="2" dir="s" state="O"/>
    <connection from="E2" to="E1.34" fromLane="0" toLane="0" via=":clusterJ20_J21_J22_1_0" tl="clusterJ20_J21_J22" linkIndex="1" dir="r" state="o"/>
    <connection from="E3" to="E3.33" fromLane="0" toLane="0" keepClear="0" via=":clusterJ30_J31_3_0" dir="s" state="M"/>
    <connection from="E3" to="E3.33" fromLane="1" toLane="1" keepClear="0" via=":clusterJ30_J31_3_1" dir="s" state="M"/>
    <connection from="E3" to="E3.33" fromLane="2" toLane="2" keepClear="0" via=":clusterJ30_J31_3_2" dir="s" state="M"/>
    <connection from="E3" to="-E3.31" fromLane="2" toLane="2" via=":clusterJ30_J31_6_0" dir="t" state="m"/>
    <connection from="E4" to="E5" fromLane="0" toLane="0" via=":J33_0_0" dir="l" state="m"/>
    <connection from="E4" to="E5" fromLane="1" toLane="0" keepClear="0" via=":J33_0_1" dir="l" state="M"/>
    <connection from="E5" to="E5.23" fromLane="0" toLane="0" via=":J37_0_0" dir="s" state="M"/>
    <connection from="E5.23" to="E5.35" fromLane="0" toLane="0" via=":J36_0_0" dir="s" state="M"/>
    <connection from="E5.35" to="E6" fromLane="0" toLane="0" via=":J34_0_0" dir="s" state="M"/>
    <connection from="E6" to="E7" fromLane="0" toLane="0" via=":J35_0_0" dir="l" state="M"/>
    <connection from="E7" to="E4" fromLane="0" toLane="0" via=":J32_0_0" dir="l" state="M"/>
    <connection from="E7" to="E4" fromLane="0" toLane="1" via=":J32_0_1" dir="l" state="M"/>
    <connection from="E7" to="E4" fromLane="0" toLane="2" via=":J32_0_2" dir="l" state="M"/>

    <connection from=":J32_0" to="E4" fromLane="0" toLane="0" dir="l" state="M"/>
    <connection from=":J32_0" to="E4" fromLane="1" toLane="1" dir="l" state="M"/>
    <connection from=":J32_0" to="E4" fromLane="2" toLane="2" dir="l" state="M"/>
    <connection from=":J33_0" to="E5" fromLane="0" toLane="0" dir="l" state="M"/>
    <connection from=":J33_0" to="E5" fromLane="1" toLane="0" dir="l" state="M"/>
    <connection from=":J34_0" to="E6" fromLane="0" toLane="0" dir="s" state="M"/>
    <connection from=":J35_0" to="E7" fromLane="0" toLane="0" dir="l" state="M"/>
    <connection from=":J36_0" to="E5.35" fromLane="0" toLane="0" dir="s" state="M"/>
    <connection from=":J37_0" to="E5.23" fromLane="0" toLane="0" dir="s" state="M"/>
    <connection from=":clusterJ20_J21_J22_0" to="-E1.33" fromLane="0" toLane="0" dir="s" state="M"/>
    <connection from=":clusterJ20_J21_J22_1" to="E1.34" fromLane="0" toLane="0" dir="r" state="M"/>
    <connection from=":clusterJ20_J21_J22_2" to="E1.34" fromLane="0" toLane="0" dir="s" state="M"/>
    <connection from=":clusterJ30_J31_0" to="-E3.31" fromLane="0" toLane="0" dir="s" state="M"/>
    <connection from=":clusterJ30_J31_0" to="-E3.31" fromLane="1" toLane="1" dir="s" state="M"/>
    <connection from=":clusterJ30_J31_0" to="-E3.31" fromLane="2" toLane="2" dir="s" state="M"/>
    <connection from=":clusterJ30_J31_3" to="E3.33" fromLane="0" toLane="0" dir="s" state="M"/>
    <connection from=":clusterJ30_J31_3" to="E3.33" fromLane="1" toLane="1" dir="s" state="M"/>
    <connection from=":clusterJ30_J31_3" to="E3.33" fromLane="2" toLane="2" dir="s" state="M"/>
    <connection from=":clusterJ30_J31_6" to="-E3.31" fromLane="0" toLane="2" via=":clusterJ30_J31_7_0" dir="t" state="m"/>
    <connection from=":clusterJ30_J31_7" to="-E3.31" fromLane="0" toLane="2" dir="t" state="M"/>

</net>
